Version 4
SHEET 1 1004 936
WIRE 224 -64 -544 -64
WIRE 224 80 224 -64
WIRE 160 160 -112 160
WIRE -112 176 -112 160
WIRE -112 320 -112 256
WIRE 176 320 176 192
WIRE 176 320 -112 320
WIRE 224 368 224 176
WIRE 912 368 224 368
WIRE -544 400 -544 -64
WIRE 224 512 224 368
WIRE 224 512 208 512
WIRE 912 528 912 368
WIRE 144 592 -112 592
WIRE -112 608 -112 592
WIRE -112 768 -112 688
WIRE 160 768 160 624
WIRE 160 768 -112 768
WIRE -544 896 -544 480
WIRE 208 896 208 608
WIRE 208 896 -544 896
WIRE 912 896 912 608
WIRE 912 896 208 896
FLAG -544 896 0
SYMBOL GaN_E-HEMT_LT_GS66508B_L1V2 176 128 R0
SYMATTR InstName U1
SYMBOL GaN_E-HEMT_LT_GS66508B_L1V2 160 560 R0
SYMATTR InstName U2
SYMBOL Misc\\signal -112 160 R0
WINDOW 123 0 0 Left 2
WINDOW 39 0 0 Left 2
SYMATTR InstName V1
SYMATTR Value PULSE(-3 6 0 0 0 10e-6 5e-6)
SYMBOL Misc\\signal -112 592 R0
WINDOW 123 0 0 Left 2
WINDOW 39 0 0 Left 2
SYMATTR InstName V2
SYMATTR Value PULSE(-3 6 10e-6 0 0 10e-6 5e-6)
SYMBOL voltage -544 384 R0
WINDOW 123 0 0 Left 2
WINDOW 39 0 0 Left 2
SYMATTR InstName V3
SYMATTR Value 50
SYMBOL ind 896 512 R0
SYMATTR InstName L1
SYMATTR Value 40e-6
SYMATTR SpiceLine Rser=10
TEXT -578 920 Left 2 !.tran 0.1
